           6
  t=         0.00000    2    2
C      -0.003964215      0.001908065     -0.156142404
Si      0.000915334     -0.001577065      1.565385503
H       0.902631724      0.089415655     -0.643089411
H       1.321448933     -0.054402915      2.401788593
H      -1.279407497      0.082830966      2.308130852
H      -0.922881383     -0.096783903     -0.691780647
           6
  t=         0.50000    2    2
C      -0.004731668     -0.000000287     -0.160240106
Si      0.000885534     -0.001443577      1.565308413
H       0.903640531      0.096446673     -0.645990086
H       1.333453682     -0.053407222      2.426588278
H      -1.289310169      0.081931870      2.316070696
H      -0.916027921     -0.084894759     -0.670688452
           6
  t=         1.00000    2    2
C      -0.005627320     -0.001936616     -0.164519082
Si      0.000934206     -0.001241990      1.565534023
H       0.909269566      0.105468831     -0.652371834
H       1.343516981     -0.054213761      2.450907917
H      -1.299240579      0.081515353      2.324565186
H      -0.912478414     -0.075233537     -0.652434682
