           6
  t=         0.00000    2    2
C       0.005019373      0.003213042      0.002542141
C      -0.012651225     -0.011141069      1.335790852
H       0.889680133      0.066533038     -0.496955701
H       0.903482207     -0.019334209      1.775644606
H      -0.853813407      0.112995199      2.037204937
H      -0.848477803     -0.065796365     -0.616050593
           6
  t=         0.10000    2    2
C       0.004524927      0.003099156      0.002629078
C      -0.012626301     -0.011434678      1.336035243
H       0.892976870      0.070529799     -0.498523418
H       0.904255449     -0.020767491      1.776975155
H      -0.852402458      0.117011780      2.036969185
H      -0.848368248     -0.067524378     -0.619522674
           6
  t=         0.20000    2    2
C       0.004010374      0.002987791      0.002678473
C      -0.012626252     -0.011730405      1.336325070
H       0.896523705      0.074772640     -0.500260861
H       0.905322553     -0.022432293      1.778533478
H      -0.850928063      0.121226703      2.036653007
H      -0.848330490     -0.069470074     -0.623066387
           6
  t=         0.30000    2    2
C       0.003477079      0.002878985      0.002690520
C      -0.012650184     -0.012028506      1.336658751
H       0.900297481      0.079263919     -0.502155936
H       0.906674951     -0.024331000      1.780316287
H      -0.849392682      0.125644170      2.036260465
H      -0.848357285     -0.071635062     -0.626678037
           6
  t=         0.40000    2    2
C       0.002926470      0.002772795      0.002665467
C      -0.012697028     -0.012329239      1.337034649
H       0.904274088      0.084005412     -0.504196121
H       0.908302169     -0.026465701      1.782319340
H      -0.847798980      0.130268249      2.035795960
H      -0.848441064     -0.074020686     -0.630353797
           6
  t=         0.50000    2    2
C       0.002360010      0.002669300      0.002603618
C      -0.012765554     -0.012632875      1.337451089
H       0.908428694      0.088998280     -0.506368574
H       0.910191928     -0.028838127      1.784537483
H      -0.846149806      0.135102839      2.035264197
H      -0.848573967     -0.076627988     -0.634089708
           6
  t=         0.60000    2    2
C       0.001779192      0.002568593      0.002505328
C      -0.012854383     -0.012939692      1.337906362
H       0.912735957      0.094243048     -0.508660245
H       0.912330281     -0.031449619      1.786964703
H      -0.844448163      0.140151644      2.034670144
H      -0.848747881     -0.079457668     -0.637881682
           6
  t=         0.70000    2    2
C       0.001185518      0.002470786      0.002370999
C      -0.012962001     -0.013249978      1.338398742
H       0.917170227      0.099739599     -0.511057968
H       0.914701749     -0.034301099      1.789594184
H      -0.842697178      0.145418153      2.034018990
H      -0.848954471     -0.082510072     -0.641725487
           6
  t=         0.80000    2    2
C       0.000580494      0.002376002      0.002201080
C      -0.013086778     -0.013564027      1.338926491
H       0.921705727      0.105487171     -0.513548570
H       0.917289482     -0.037393049      1.792418380
H      -0.840900072      0.150905621      2.033316111
H      -0.849185220     -0.085785172     -0.645616763
           6
  t=         0.90000    2    2
C      -0.000034388      0.002284376      0.001996065
C      -0.013226981     -0.013882143      1.339487862
H       0.926316729      0.111484375     -0.516118946
H       0.920075423     -0.040725502      1.795429081
H      -0.839060128      0.156617062      2.032567025
H      -0.849431469     -0.089282564     -0.649551012
           6
  t=         1.00000    2    2
C      -0.000657653      0.002196054      0.001756487
C      -0.013380795     -0.014204634      1.340081111
H       0.930977708      0.117729211     -0.518756145
H       0.923040470     -0.044298042      1.798617492
H      -0.837180659      0.162555242      2.031777355
H      -0.849684453     -0.093001472     -0.653523607
           6
  t=         1.10000    2    2
C      -0.001287855      0.002111187      0.001482920
C      -0.013546337     -0.014531815      1.340704502
H       0.935663476      0.124219100     -0.521447440
H       0.926164651     -0.048109812      1.801974311
H      -0.835264966      0.168722675      2.030952784
H      -0.849935341     -0.096940756     -0.657529790
           6
  t=         1.20000    2    2
C      -0.001923581      0.002029935      0.001175976
C      -0.013721677     -0.014864007      1.341356306
H       0.940349302      0.130950916     -0.524180391
H       0.929427291     -0.052159521      1.805489805
H      -0.833316307      0.175121625      2.030099016
H      -0.850175274     -0.101098922     -0.661564686
           6
  t=         1.30000    2    2
C      -0.002563457      0.001952459      0.000836304
C      -0.013904855     -0.015201531      1.342034806
H       0.945011021      0.137921020     -0.526942904
H       0.932807177     -0.056445463      1.809153895
H      -0.831337856      0.181754103      2.029221738
H      -0.850395399     -0.105474143     -0.665623307
           6
  t=         1.40000    2    2
C      -0.003206152      0.001878924      0.000464597
C      -0.014093898     -0.015544712      1.342738299
H       0.949625121      0.145125294     -0.529723277
H       0.936282724     -0.060965526      1.812956235
H      -0.829332664      0.188621865      2.028326587
H      -0.850586912     -0.110064266     -0.669700576
           6
  t=         1.50000    2    2
C      -0.003850382      0.001809495      0.000061584
C      -0.014286835     -0.015893874      1.343465094
H       0.954168817      0.152559190     -0.532510243
H       0.939832117     -0.065717225      1.816886281
H      -0.827303613      0.195726420      2.027419093
H      -0.850741085     -0.114866846     -0.673791322
           6
  t=         1.60000    2    2
C      -0.004494909      0.001744336     -0.000371965
C      -0.014481715     -0.016249338      1.344213519
H       0.958620111      0.160217764     -0.535293004
H       0.943433463     -0.070697719      1.820933365
H      -0.825253381      0.203069024      2.026504648
H      -0.850849301     -0.119879159     -0.677890311
           6
  t=         1.70000    2    2
C      -0.005138548      0.001683611     -0.000835238
C      -0.014676621     -0.016611424      1.344981914
H       0.962957842      0.168095706     -0.538061257
H       0.947064918     -0.075903829      1.825086762
H      -0.823184397      0.210650673      2.025588470
H      -0.850903089     -0.125098222     -0.681992253
           6
  t=         1.80000    2    2
C      -0.005780162      0.001627479     -0.001327378
C      -0.014869684     -0.016980442      1.345768633
H       0.967161727      0.176187378     -0.540805218
H       0.950704818     -0.081332054      1.829335756
H      -0.821098799      0.218472092      2.024675558
H      -0.850894144     -0.130520808     -0.686091826
           6
  t=         1.90000    2    2
C      -0.006418664      0.001576097     -0.001847481
C      -0.015059097     -0.017356699      1.346572045
H       0.971212383      0.184486844     -0.543515636
H       0.954331783     -0.086978595      1.833669696
H      -0.818998393      0.226533730      2.023770659
H      -0.850814363     -0.136143464     -0.690183694
           6
  t=         2.00000    2    2
C      -0.007053018      0.001529617     -0.002394598
C      -0.015243124     -0.017740488      1.347390530
H       0.975091349      0.192987892     -0.546183800
H       0.957924824     -0.092839366      1.838078044
H      -0.816884616      0.234835740      2.022878226
H      -0.850655859     -0.141962529     -0.694262519
           6
  t=         2.10000    2    2
C      -0.007682237      0.001488186     -0.002967732
C      -0.015420112     -0.018132091      1.348222484
H       0.978781097      0.201684065     -0.548801544
H       0.961463425     -0.098910011      1.842550426
H      -0.814758496      0.243377960      2.022002381
H      -0.850410988     -0.147974142     -0.698322988
           6
  t=         2.20000    2    2
C      -0.008305384      0.001451948     -0.003565838
C      -0.015588500     -0.018531774      1.349066319
H       0.982265035      0.210568676     -0.551361248
H       0.964927627     -0.105185916      1.847076663
H      -0.812620615      0.252159898      2.021146884
H      -0.850072368     -0.154174257     -0.702359821
           6
  t=         2.30000    2    2
C      -0.008921568      0.001421039     -0.004187822
C      -0.015746827     -0.018939788      1.349920460
H       0.985527502      0.219634829     -0.553855826
H       0.968298088     -0.111662222      1.851646812
H      -0.810471082      0.261180703      2.020315090
H      -0.849632890     -0.160558655     -0.706367792
           6
  t=         2.40000    2    2
C      -0.009529945      0.001395592     -0.004832545
C      -0.015893738     -0.019356361      1.350783353
H       0.988553764      0.228875436     -0.556278723
H       0.971556144     -0.118333835      1.856251187
H      -0.808309501      0.270439143      2.019509927
H      -0.849085738     -0.167122950     -0.710341746
           6
  t=         2.50000    2    2
C      -0.010129715      0.001375735     -0.005498824
C      -0.016027989     -0.019781701      1.351653460
H       0.991329998      0.238283227     -0.558623896
H       0.974683850     -0.125195434      1.860880384
H      -0.806134947      0.279933578      2.018733859
H      -0.848424396     -0.173862601     -0.714276606
           6
  t=         2.60000    2    2
C      -0.010720121      0.001361589     -0.006185429
C      -0.016148454     -0.020215991      1.352529271
H       0.993843277      0.247850770     -0.560885803
H       0.977664022     -0.132241484      1.865525298
H      -0.803945950      0.289661933      2.017988863
H      -0.847642660     -0.180772919     -0.718167394
           6
  t=         2.70000    2    2
C      -0.011300448      0.001353273     -0.006891095
C      -0.016254122     -0.020659386      1.353409298
H       0.996081550      0.257570472     -0.563059380
H       0.980480260     -0.139466239      1.870177135
H      -0.801740478      0.299621671      2.017276408
H      -0.846734646     -0.187849071     -0.722009234
           6
  t=         2.80000    2    2
C      -0.011870021      0.001350901     -0.007614515
C      -0.016344105     -0.021112014      1.354292083
H       0.998033623      0.267434600     -0.565140024
H       0.983116975     -0.146863755      1.874827416
H      -0.799515931      0.309809770      2.016597435
H      -0.845694795     -0.195086093     -0.725797368
           6
  t=         2.90000    2    2
C      -0.012428202      0.001354584     -0.008354352
C      -0.016417635     -0.021573971      1.355176201
H       0.999689130      0.277435283     -0.567123571
H       0.985559398     -0.154427898      1.879467991
H      -0.797269138      0.320222693      2.015952343
H      -0.844517876     -0.202478893     -0.729527165
           6
  t=         3.00000    2    2
C      -0.012974391      0.001364429     -0.009109239
C      -0.016474063     -0.022045317      1.356060260
H       1.001038513      0.287564525     -0.569006273
H       0.987793589     -0.162152350      1.884091029
H      -0.794996362      0.330856373      2.015340984
H      -0.843198991     -0.210022258     -0.733194122
