           6
  t=         0.00000    8    2
C      -0.003964215      0.001908065     -0.156142404
Si      0.000915334     -0.001577065      1.565385503
H       0.902631724      0.089415655     -0.643089411
H       1.321448933     -0.054402915      2.401788593
H      -1.279407497      0.082830966      2.308130852
H      -0.922881383     -0.096783903     -0.691780647
           6
  t=         0.50000    8    2
C      -0.004731678     -0.000000278     -0.160240095
Si      0.000885534     -0.001443578      1.565308394
H       0.903640671      0.096446587     -0.645990045
H       1.333453955     -0.053407243      2.426588484
H      -1.289310392      0.081931837      2.316070746
H      -0.916028005     -0.084894694     -0.670688344
           6
  t=         1.00000    8    2
C      -0.005627371     -0.001936491     -0.164519037
Si      0.000934204     -0.001242016      1.565533870
H       0.909270509      0.105467935     -0.652371310
H       1.343518594     -0.054214403      2.450909587
H      -1.299241742      0.081515778      2.324565629
H      -0.912479168     -0.075233200     -0.652433605
